Wilkinson's Catalyst
RLRasMol  02069715003D
http://wwwchem.uwimona.edu.jm:1104/courses/comligs.html
104112  0        0              1 V2000
   -0.0280    0.7120    0.1880 Rh  0  0  0  0  0  0  0  0  0  0  0  0
    0.2360    2.8840    0.8360 Cl  0  0  0  0  0  0  0  0  0  0  0  0
   -0.3600   -1.5160   -0.4480 P   0  0  0  0  0  0  0  0  0  0  0  0
    0.6960   -2.0240   -1.8800 C   0  0  0  0  0  0  0  0  0  0  0  0
   -2.3360    1.0320    0.0520 P   0  0  0  0  0  0  0  0  0  0  0  0
    2.2960    0.3880    0.2920 P   0  0  0  0  0  0  0  0  0  0  0  0
   -0.0640   -2.5720    1.0480 C   0  0  0  0  0  0  0  0  0  0  0  0
   -2.0840   -1.8080   -1.0840 C   0  0  0  0  0  0  0  0  0  0  0  0
    2.8760   -1.3600    0.0960 C   0  0  0  0  0  0  0  0  0  0  0  0
    2.9880    0.8880    1.9360 C   0  0  0  0  0  0  0  0  0  0  0  0
    3.2240    1.3120   -1.0280 C   0  0  0  0  0  0  0  0  0  0  0  0
   -3.2360   -0.4760    0.6440 C   0  0  0  0  0  0  0  0  0  0  0  0
   -2.9280    2.3640    1.2000 C   0  0  0  0  0  0  0  0  0  0  0  0
   -2.8360    1.3800   -1.7040 C   0  0  0  0  0  0  0  0  0  0  0  0
    1.7120   -2.9720   -1.7640 C   0  0  0  0  0  0  0  0  0  0  0  0
    2.4640   -3.3040   -2.8880 C   0  0  0  0  0  0  0  0  0  0  0  0
    2.2040   -2.6920   -4.1160 C   0  0  0  0  0  0  0  0  0  0  0  0
    1.1880   -1.7480   -4.2240 C   0  0  0  0  0  0  0  0  0  0  0  0
    0.4360   -1.4200   -3.1040 C   0  0  0  0  0  0  0  0  0  0  0  0
    0.2320   -3.9320    0.9840 C   0  0  0  0  0  0  0  0  0  0  0  0
    0.4600   -4.6480    2.1600 C   0  0  0  0  0  0  0  0  0  0  0  0
    0.4040   -4.0040    3.3960 C   0  0  0  0  0  0  0  0  0  0  0  0
    0.1120   -2.6480    3.4600 C   0  0  0  0  0  0  0  0  0  0  0  0
   -0.1240   -1.9360    2.2880 C   0  0  0  0  0  0  0  0  0  0  0  0
   -2.9000   -2.8160   -0.5880 C   0  0  0  0  0  0  0  0  0  0  0  0
   -4.1720   -3.0040   -1.1200 C   0  0  0  0  0  0  0  0  0  0  0  0
   -4.6320   -2.1840   -2.1480 C   0  0  0  0  0  0  0  0  0  0  0  0
   -3.8160   -1.1720   -2.6440 C   0  0  0  0  0  0  0  0  0  0  0  0
   -2.5400   -0.9880   -2.1120 C   0  0  0  0  0  0  0  0  0  0  0  0
    3.5240   -1.7520   -1.0720 C   0  0  0  0  0  0  0  0  0  0  0  0
    3.9920   -3.0520   -1.2080 C   0  0  0  0  0  0  0  0  0  0  0  0
    3.8120   -3.9680   -0.1760 C   0  0  0  0  0  0  0  0  0  0  0  0
    3.1600   -3.5800    0.9920 C   0  0  0  0  0  0  0  0  0  0  0  0
    2.6920   -2.2760    1.1280 C   0  0  0  0  0  0  0  0  0  0  0  0
    4.3120    1.3000    2.0640 C   0  0  0  0  0  0  0  0  0  0  0  0
    4.8080    1.6400    3.3200 C   0  0  0  0  0  0  0  0  0  0  0  0
    3.9800    1.5720    4.4400 C   0  0  0  0  0  0  0  0  0  0  0  0
    2.6560    1.1640    4.3080 C   0  0  0  0  0  0  0  0  0  0  0  0
    2.1600    0.8200    3.0560 C   0  0  0  0  0  0  0  0  0  0  0  0
    2.5360    2.1280   -1.9200 C   0  0  0  0  0  0  0  0  0  0  0  0
    3.2240    2.8080   -2.9240 C   0  0  0  0  0  0  0  0  0  0  0  0
    4.6040    2.6720   -3.0360 C   0  0  0  0  0  0  0  0  0  0  0  0
    5.2920    1.8520   -2.1480 C   0  0  0  0  0  0  0  0  0  0  0  0
    4.6080    1.1760   -1.1440 C   0  0  0  0  0  0  0  0  0  0  0  0
   -4.6240   -0.5000    0.6760 C   0  0  0  0  0  0  0  0  0  0  0  0
   -5.2840   -1.6280    1.1600 C   0  0  0  0  0  0  0  0  0  0  0  0
   -4.5480   -2.7240    1.6080 C   0  0  0  0  0  0  0  0  0  0  0  0
   -3.1560   -2.6960    1.5720 C   0  0  0  0  0  0  0  0  0  0  0  0
   -2.5000   -1.5680    1.0920 C   0  0  0  0  0  0  0  0  0  0  0  0
   -2.9840    3.7040    0.8200 C   0  0  0  0  0  0  0  0  0  0  0  0
   -3.4240    4.6560    1.7360 C   0  0  0  0  0  0  0  0  0  0  0  0
   -3.8040    4.2760    3.0200 C   0  0  0  0  0  0  0  0  0  0  0  0
   -3.7440    2.9360    3.3960 C   0  0  0  0  0  0  0  0  0  0  0  0
   -3.3040    1.9840    2.4840 C   0  0  0  0  0  0  0  0  0  0  0  0
   -4.0880    1.0360   -2.2080 C   0  0  0  0  0  0  0  0  0  0  0  0
   -4.3880    1.2880   -3.5480 C   0  0  0  0  0  0  0  0  0  0  0  0
   -3.4480    1.8840   -4.3800 C   0  0  0  0  0  0  0  0  0  0  0  0
   -2.2000    2.2320   -3.8760 C   0  0  0  0  0  0  0  0  0  0  0  0
   -1.8960    1.9800   -2.5400 C   0  0  0  0  0  0  0  0  0  0  0  0
    1.9160   -3.4520   -0.8000 H   0  0  0  0  0  0  0  0  0  0  0  0
    3.2680   -4.0520   -2.8080 H   0  0  0  0  0  0  0  0  0  0  0  0
    2.8000   -2.9560   -5.0000 H   0  0  0  0  0  0  0  0  0  0  0  0
    0.9800   -1.2640   -5.1920 H   0  0  0  0  0  0  0  0  0  0  0  0
   -0.3720   -0.6760   -3.1840 H   0  0  0  0  0  0  0  0  0  0  0  0
    0.2880   -4.4440    0.0120 H   0  0  0  0  0  0  0  0  0  0  0  0
    0.6880   -5.7200    2.1160 H   0  0  0  0  0  0  0  0  0  0  0  0
    0.5880   -4.5680    4.3240 H   0  0  0  0  0  0  0  0  0  0  0  0
    0.0720   -2.1320    4.4320 H   0  0  0  0  0  0  0  0  0  0  0  0
   -0.3520   -0.8640    2.3360 H   0  0  0  0  0  0  0  0  0  0  0  0
   -2.5440   -3.4680    0.2240 H   0  0  0  0  0  0  0  0  0  0  0  0
   -4.8200   -3.8080   -0.7360 H   0  0  0  0  0  0  0  0  0  0  0  0
   -5.6360   -2.3320   -2.5680 H   0  0  0  0  0  0  0  0  0  0  0  0
   -4.1720   -0.5200   -3.4560 H   0  0  0  0  0  0  0  0  0  0  0  0
   -1.8880   -0.2000   -2.5120 H   0  0  0  0  0  0  0  0  0  0  0  0
    3.6760   -1.0240   -1.8840 H   0  0  0  0  0  0  0  0  0  0  0  0
    4.5120   -3.3600   -2.1280 H   0  0  0  0  0  0  0  0  0  0  0  0
    4.1880   -4.9960   -0.2800 H   0  0  0  0  0  0  0  0  0  0  0  0
    3.0200   -4.3040    1.8080 H   0  0  0  0  0  0  0  0  0  0  0  0
    2.1880   -1.9640    2.0520 H   0  0  0  0  0  0  0  0  0  0  0  0
    4.9640    1.3480    1.1800 H   0  0  0  0  0  0  0  0  0  0  0  0
    5.8560    1.9600    3.4320 H   0  0  0  0  0  0  0  0  0  0  0  0
    4.3720    1.8360    5.4320 H   0  0  0  0  0  0  0  0  0  0  0  0
    2.0000    1.1080    5.1920 H   0  0  0  0  0  0  0  0  0  0  0  0
    1.1160    0.4880    2.9440 H   0  0  0  0  0  0  0  0  0  0  0  0
    1.4440    2.2360   -1.8360 H   0  0  0  0  0  0  0  0  0  0  0  0
    2.6760    3.4560   -3.6240 H   0  0  0  0  0  0  0  0  0  0  0  0
    5.1480    3.2040   -3.8320 H   0  0  0  0  0  0  0  0  0  0  0  0
    6.3840    1.7400   -2.2440 H   0  0  0  0  0  0  0  0  0  0  0  0
    5.1560    0.5280   -0.4520 H   0  0  0  0  0  0  0  0  0  0  0  0
   -5.2000    0.3640    0.3240 H   0  0  0  0  0  0  0  0  0  0  0  0
   -6.3800   -1.6480    1.1960 H   0  0  0  0  0  0  0  0  0  0  0  0
   -5.0680   -3.6120    1.9960 H   0  0  0  0  0  0  0  0  0  0  0  0
   -2.5760   -3.5600    1.9280 H   0  0  0  0  0  0  0  0  0  0  0  0
   -1.4000   -1.5360    1.0720 H   0  0  0  0  0  0  0  0  0  0  0  0
   -2.6800    4.0080   -0.1920 H   0  0  0  0  0  0  0  0  0  0  0  0
   -3.4760    5.7160    1.4480 H   0  0  0  0  0  0  0  0  0  0  0  0
   -4.1520    5.0280    3.7440 H   0  0  0  0  0  0  0  0  0  0  0  0
   -4.0400    2.6280    4.4120 H   0  0  0  0  0  0  0  0  0  0  0  0
   -3.2520    0.9240    2.7760 H   0  0  0  0  0  0  0  0  0  0  0  0
   -4.8360    0.5600   -1.5600 H   0  0  0  0  0  0  0  0  0  0  0  0
   -5.3720    1.0120   -3.9520 H   0  0  0  0  0  0  0  0  0  0  0  0
   -3.6840    2.0760   -5.4360 H   0  0  0  0  0  0  0  0  0  0  0  0
   -1.4520    2.7000   -4.5280 H   0  0  0  0  0  0  0  0  0  0  0  0
   -0.9040    2.2440   -2.1440 H   0  0  0  0  0  0  0  0  0  0  0  0
 59104  1  0
 58103  1  0
 58 59  1  0
 57102  1  0
 57 58  1  0
 56101  1  0
 56 57  1  0
 55100  1  0
 55 56  1  0
 54 99  1  0
 53 98  1  0
 53 54  1  0
 52 97  1  0
 52 53  1  0
 51 96  1  0
 51 52  1  0
 50 95  1  0
 50 51  1  0
 49 94  1  0
 48 93  1  0
 48 49  1  0
 47 92  1  0
 47 48  1  0
 46 91  1  0
 46 47  1  0
 45 90  1  0
 45 46  1  0
 44 89  1  0
 43 88  1  0
 43 44  1  0
 42 87  1  0
 42 43  1  0
 41 86  1  0
 41 42  1  0
 40 85  1  0
 40 41  1  0
 39 84  1  0
 38 83  1  0
 38 39  1  0
 37 82  1  0
 37 38  1  0
 36 81  1  0
 36 37  1  0
 35 80  1  0
 35 36  1  0
 34 79  1  0
 33 78  1  0
 33 34  1  0
 32 77  1  0
 32 33  1  0
 31 76  1  0
 31 32  1  0
 30 75  1  0
 30 31  1  0
 29 74  1  0
 28 73  1  0
 28 29  1  0
 27 72  1  0
 27 28  1  0
 26 71  1  0
 26 27  1  0
 25 70  1  0
 25 26  1  0
 24 69  1  0
 23 68  1  0
 23 24  1  0
 22 67  1  0
 22 23  1  0
 21 66  1  0
 21 22  1  0
 20 65  1  0
 20 21  1  0
 19 64  1  0
 18 63  1  0
 18 19  1  0
 17 62  1  0
 17 18  1  0
 16 61  1  0
 16 17  1  0
 15 60  1  0
 15 16  1  0
 14 59  1  0
 14 55  1  0
 13 54  1  0
 13 50  1  0
 12 49  1  0
 12 45  1  0
 11 44  1  0
 11 40  1  0
 10 39  1  0
 10 35  1  0
  9 34  1  0
  9 30  1  0
  8 29  1  0
  8 25  1  0
  7 24  1  0
  7 20  1  0
  6 11  1  0
  6 10  1  0
  6  9  1  0
  5 14  1  0
  5 13  1  0
  5 12  1  0
  4 19  1  0
  4 15  1  0
  3  8  1  0
  3  7  1  0
  3  4  1  0
  1  6  1  0
  1  5  1  0
  1  3  1  0
  1  2  1  0
M  END
